Version 4
SHEET 1 976 680
WIRE 288 -160 240 -160
WIRE 400 -160 368 -160
WIRE 576 -160 544 -160
WIRE 704 -160 656 -160
WIRE 16 -32 -96 -32
WIRE 112 -32 96 -32
WIRE 128 -32 112 -32
WIRE 240 -32 240 -160
WIRE 240 -32 208 -32
WIRE 256 -32 240 -32
WIRE 400 -32 400 -160
WIRE 432 -32 400 -32
WIRE 528 -32 512 -32
WIRE 544 -32 544 -160
WIRE 544 -32 528 -32
WIRE 560 -32 544 -32
WIRE 704 -32 704 -160
WIRE 736 -32 704 -32
WIRE 848 -32 816 -32
WIRE -96 16 -96 -32
WIRE 160 80 160 64
WIRE 448 80 448 64
WIRE 112 96 112 -32
WIRE 128 96 112 96
WIRE 400 96 400 -32
WIRE 416 96 400 96
WIRE 704 96 704 -32
WIRE 736 96 704 96
WIRE 240 112 240 -32
WIRE 240 112 192 112
WIRE 528 112 528 -32
WIRE 528 112 480 112
WIRE 848 112 848 -32
WIRE 848 112 800 112
WIRE 912 112 848 112
WIRE -96 128 -96 96
WIRE 128 128 112 128
WIRE 416 128 400 128
WIRE 736 128 720 128
WIRE -240 144 -240 112
WIRE 112 144 112 128
WIRE 400 144 400 128
WIRE 720 144 720 128
WIRE 160 176 160 144
WIRE 448 176 448 144
WIRE 768 176 768 144
WIRE -240 240 -240 224
WIRE -176 240 -240 240
WIRE -176 256 -176 240
WIRE -240 272 -240 240
WIRE -240 384 -240 352
FLAG 112 144 0
FLAG 160 64 Vdd
FLAG 160 176 Vss
FLAG 400 144 0
FLAG 448 64 Vdd
FLAG 448 176 Vss
FLAG 720 144 0
FLAG 768 176 Vss
FLAG 768 80 Vdd
FLAG -96 128 0
FLAG -176 256 0
FLAG -240 112 Vdd
FLAG -240 384 Vss
FLAG 912 192 0
FLAG 704 -160 Vddsum
FLAG 400 -160 Vdsum
FLAG -96 -32 Vin
FLAG 240 -160 Vp
FLAG 544 -160 Vd
FLAG 848 -32 Vdd
SYMBOL res 224 -48 R90
WINDOW 0 0 56 VBottom 2
WINDOW 3 32 56 VTop 2
SYMATTR InstName R1
SYMATTR Value 100k
SYMBOL res 112 -48 R90
WINDOW 0 0 56 VBottom 2
WINDOW 3 32 56 VTop 2
SYMATTR InstName R2
SYMATTR Value 10k
SYMBOL res 352 -48 R90
WINDOW 0 0 56 VBottom 2
WINDOW 3 32 56 VTop 2
SYMATTR InstName R3
SYMATTR Value 1k
SYMBOL cap 400 -48 R90
WINDOW 0 0 32 VBottom 2
WINDOW 3 32 32 VTop 2
SYMATTR InstName C1
SYMATTR Value 1µF
SYMBOL res 528 -48 R90
WINDOW 0 0 56 VBottom 2
WINDOW 3 32 56 VTop 2
SYMATTR InstName R4
SYMATTR Value 100k
SYMBOL res 656 -48 R90
WINDOW 0 0 56 VBottom 2
WINDOW 3 32 56 VTop 2
SYMATTR InstName R5
SYMATTR Value 1k
SYMBOL cap 704 -48 R90
WINDOW 0 0 32 VBottom 2
WINDOW 3 32 32 VTop 2
SYMATTR InstName C2
SYMATTR Value 0.1µF
SYMBOL res 832 -48 R90
WINDOW 0 0 56 VBottom 2
WINDOW 3 32 56 VTop 2
SYMATTR InstName R6
SYMATTR Value 100k
SYMBOL voltage -96 0 R0
WINDOW 123 0 0 Left 0
WINDOW 39 0 0 Left 0
SYMATTR InstName V1
SYMATTR Value PULSE(-10mV 10mV 0 0 0 20ms 50ms)
SYMBOL voltage -240 128 R0
WINDOW 123 0 0 Left 0
WINDOW 39 0 0 Left 0
SYMATTR InstName V2
SYMATTR Value 15V
SYMBOL voltage -240 256 R0
WINDOW 123 0 0 Left 0
WINDOW 39 0 0 Left 0
SYMATTR InstName V3
SYMATTR Value 15V
SYMBOL res 384 -176 R90
WINDOW 0 0 56 VBottom 2
WINDOW 3 32 56 VTop 2
SYMATTR InstName R7
SYMATTR Value 1Meg
SYMBOL res 672 -176 R90
WINDOW 0 0 56 VBottom 2
WINDOW 3 32 56 VTop 2
SYMATTR InstName R8
SYMATTR Value 1Meg
SYMBOL res 896 96 R0
SYMATTR InstName R9
SYMATTR Value 100
SYMBOL Opamps\\LT1882 160 112 R0
SYMATTR InstName U1
SYMBOL Opamps\\LT1882 448 112 R0
SYMATTR InstName U2
SYMBOL Opamps\\LT1882 768 112 R0
SYMATTR InstName U3
SYMBOL Opamps\\LT1882 -16 0 R0
SYMATTR InstName U4
TEXT -272 480 Left 2 !.tran 100ms uic
TEXT -144 344 Left 2 !.ic V(Vdsum)=0, V(Vddsum)=0
